Version 4
SHEET 1 1008 968
WIRE 336 -32 144 -32
WIRE 832 0 592 0
WIRE 912 0 832 0
WIRE 336 16 336 -32
WIRE -32 80 -144 80
WIRE 144 80 144 -32
WIRE 144 80 -32 80
WIRE 192 80 144 80
WIRE 592 80 592 0
WIRE 592 80 480 80
WIRE 624 80 592 80
WIRE 720 80 688 80
WIRE 720 160 720 80
WIRE 720 160 480 160
WIRE 832 160 832 0
WIRE -144 224 -144 80
WIRE -32 240 -32 80
WIRE 192 240 112 240
WIRE 512 240 480 240
WIRE 592 240 592 80
WIRE 112 256 112 240
WIRE -144 368 -144 304
WIRE -32 368 -32 304
WIRE -32 368 -144 368
WIRE 112 368 112 336
WIRE 112 368 -32 368
WIRE 336 368 336 304
WIRE 336 368 112 368
WIRE 720 368 720 160
WIRE 720 368 336 368
WIRE 832 368 832 240
WIRE 832 368 720 368
WIRE 336 384 336 368
FLAG 336 384 0
FLAG 912 0 -5V
IOPIN 912 0 Out
SYMBOL PowerProducts\\LTM8045 336 160 R0
SYMATTR InstName U1
SYMBOL res 608 224 R90
WINDOW 0 0 56 VBottom 2
WINDOW 3 32 56 VTop 2
SYMATTR InstName R1
SYMATTR Value 60.4k
SYMBOL cap 688 64 R90
WINDOW 0 0 32 VBottom 2
WINDOW 3 32 32 VTop 2
SYMATTR InstName C1
SYMATTR Value 22µ
SYMATTR SpiceLine V=16
SYMBOL res 96 240 R0
SYMATTR InstName R2
SYMATTR Value 130k
SYMBOL cap -48 240 R0
SYMATTR InstName C3
SYMATTR Value 4.7µ
SYMATTR SpiceLine V=16
SYMBOL voltage -144 208 R0
WINDOW 123 0 0 Left 2
WINDOW 39 0 0 Left 2
SYMATTR InstName V1
SYMATTR Value 12V
SYMBOL res 816 144 R0
SYMATTR InstName R3
SYMATTR Value 3R
TEXT -178 952 Left 2 !.tran 0.001
TEXT -208 352 VLeft 3 ;Input Voltage
TEXT 872 -40 Left 3 ;Output
